<?xml version="1.0" encoding="UTF-8"?>

<!-- generated on 2025-05-06 14:44:55 by Eclipse SUMO netedit Version 1.22.0
<neteditConfiguration xmlns:xsi="http://www.w3.org/2001/XMLSchema-instance" xsi:noNamespaceSchemaLocation="http://sumo.dlr.de/xsd/neteditConfiguration.xsd">

    <input>
        <sumocfg-file value="E:\wq\2025\交通AI\sumo-llm\api-server\sumo_sim\osm.sumocfg"/>
        <additional-files value=""/>
        <route-files value="E:\wq\2025\交通AI\sumo-llm\api-server\sumo_sim\morning_rush_hour.rou.xml"/>
        <sumo-net-file value="E:\wq\2025\交通AI\sumo-llm\api-server\sumo_sim\ChengduCity.net.xml"/>
    </input>

    <output>
        <output-file value="E:\wq\2025\交通AI\sumo-llm\api-server\sumo_sim\ChengduCity.net.xml"/>
        <output.street-names value="true"/>
    </output>

    <processing>
        <geometry.min-radius.fix.railways value="false"/>
        <geometry.max-grade.fix value="false"/>
        <offset.disable-normalization value="true"/>
        <lefthand value="0"/>
    </processing>

    <junctions>
        <no-turnarounds value="true"/>
        <junctions.corner-detail value="5"/>
        <junctions.limit-turn-speed value="5.50"/>
        <rectangular-lane-cut value="0"/>
    </junctions>

    <pedestrian>
        <walkingareas value="0"/>
    </pedestrian>

    <netedit>
        <ignore.routeelements value="false"/>
    </netedit>

</neteditConfiguration>
-->

<net version="1.20" junctionCornerDetail="5" limitTurnSpeed="5.50" xmlns:xsi="http://www.w3.org/2001/XMLSchema-instance" xsi:noNamespaceSchemaLocation="http://sumo.dlr.de/xsd/net_file.xsd">

    <location netOffset="-395175.20,-3368780.13" convBoundary="12740.03,19131.61,16422.92,22554.14" origBoundary="103.907126,30.447410,104.195564,30.720188" projParameter="+proj=utm +zone=48 +ellps=WGS84 +datum=WGS84 +units=m +no_defs"/>

    <type id="highway.living_street" priority="2" numLanes="1" speed="2.78" disallow="tram rail_urban rail rail_electric rail_fast ship" oneway="1"/>
    <type id="highway.primary" priority="12" numLanes="2" speed="27.78" disallow="tram rail_urban rail rail_electric rail_fast ship" oneway="1"/>
    <type id="highway.primary_link" priority="7" numLanes="1" speed="22.22" disallow="tram rail_urban rail rail_electric rail_fast ship" oneway="1"/>
    <type id="highway.residential" priority="3" numLanes="1" speed="13.89" disallow="tram rail_urban rail rail_electric rail_fast ship" oneway="1"/>
    <type id="highway.secondary" priority="11" numLanes="1" speed="27.78" disallow="tram rail_urban rail rail_electric rail_fast ship" oneway="1"/>
    <type id="highway.secondary_link" priority="6" numLanes="1" speed="22.22" disallow="tram rail_urban rail rail_electric rail_fast ship" oneway="1"/>
    <type id="highway.service" priority="1" numLanes="1" speed="5.56" allow="pedestrian delivery bicycle" oneway="1"/>
    <type id="highway.tertiary" priority="10" numLanes="1" speed="22.22" disallow="tram rail_urban rail rail_electric rail_fast ship" oneway="1"/>
    <type id="highway.tertiary_link" priority="5" numLanes="1" speed="22.22" disallow="tram rail_urban rail rail_electric rail_fast ship" oneway="1"/>
    <type id="highway.trunk" priority="13" numLanes="2" speed="27.78" disallow="pedestrian bicycle tram rail_urban rail rail_electric rail_fast ship" oneway="1"/>
    <type id="highway.trunk_link" priority="8" numLanes="1" speed="22.22" disallow="pedestrian bicycle tram rail_urban rail rail_electric rail_fast ship" oneway="1"/>
    <type id="highway.unclassified" priority="4" numLanes="1" speed="13.89" disallow="tram rail_urban rail rail_electric rail_fast ship" oneway="1"/>

    <edge id=":1159173118_0" function="internal">
        <lane id=":1159173118_0_0" index="0" disallow="tram rail_urban rail rail_electric rail_fast ship" speed="10.56" length="10.64" shape="15885.26,19635.09 15884.92,19632.76 15884.00,19630.47 15882.48,19628.19 15880.37,19625.95"/>
    </edge>
    <edge id=":1159173118_1" function="internal">
        <lane id=":1159173118_1_0" index="0" disallow="tram rail_urban rail rail_electric rail_fast ship" speed="12.40" length="13.27" shape="15885.26,19635.09 15885.56,19631.66 15886.56,19628.69 15888.20,19625.96 15890.43,19623.25"/>
    </edge>
    <edge id=":1159173118_2" function="internal">
        <lane id=":1159173118_2_0" index="0" disallow="tram rail_urban rail rail_electric rail_fast ship" speed="11.32" length="10.99" shape="15892.81,19625.40 15890.70,19627.77 15889.35,19629.74 15888.63,19631.95 15888.46,19635.04"/>
    </edge>
    <edge id=":1159173118_3" function="internal">
        <lane id=":1159173118_3_0" index="0" disallow="tram rail_urban rail rail_electric rail_fast ship" speed="7.98" length="3.67" shape="15892.81,19625.40 15889.99,19627.75"/>
    </edge>
    <edge id=":1159173118_6" function="internal">
        <lane id=":1159173118_6_0" index="0" disallow="tram rail_urban rail rail_electric rail_fast ship" speed="7.98" length="10.57" shape="15889.99,19627.75 15889.81,19627.90 15886.73,19628.82 15883.59,19628.18 15880.37,19625.95"/>
    </edge>
    <edge id=":1159173118_4" function="internal">
        <lane id=":1159173118_4_0" index="0" disallow="tram rail_urban rail rail_electric rail_fast ship" speed="6.48" length="9.03" shape="15882.54,19623.60 15884.58,19625.02 15886.58,19625.43 15888.53,19624.84 15890.43,19623.25"/>
    </edge>
    <edge id=":1159173118_5" function="internal">
        <lane id=":1159173118_5_0" index="0" disallow="tram rail_urban rail rail_electric rail_fast ship" speed="11.73" length="13.22" shape="15882.54,19623.60 15885.09,19626.34 15886.93,19629.16 15888.05,19632.06 15888.46,19635.04"/>
    </edge>
    <edge id=":1159173119_0" function="internal">
        <lane id=":1159173119_0_0" index="0" disallow="tram rail_urban rail rail_electric rail_fast ship" speed="6.08" length="7.69" shape="15892.07,19763.70 15889.99,19763.42 15888.49,19762.53 15887.57,19761.05 15887.24,19758.98"/>
    </edge>
    <edge id=":1159173119_1" function="internal">
        <lane id=":1159173119_1_0" index="0" disallow="tram rail_urban rail rail_electric rail_fast ship" speed="3.90" length="2.56" shape="15890.44,19758.93 15890.55,19759.62 15890.85,19760.11 15891.35,19760.40 15892.05,19760.50"/>
    </edge>
    <edge id=":1159173347_0" function="internal">
        <lane id=":1159173347_0_0" index="0" disallow="tram rail_urban rail rail_electric rail_fast ship" speed="6.63" length="9.18" shape="15960.80,19763.21 15958.36,19763.60 15956.61,19764.70 15955.53,19766.50 15955.13,19769.02"/>
    </edge>
    <edge id=":1159173347_1" function="internal">
        <lane id=":1159173347_1_0" index="0" disallow="tram rail_urban rail rail_electric rail_fast ship" speed="13.89" length="14.39" shape="15960.80,19763.21 15946.40,19763.35"/>
    </edge>
    <edge id=":1159173347_2" function="internal">
        <lane id=":1159173347_2_0" index="0" disallow="tram rail_urban rail rail_electric rail_fast ship" speed="13.89" length="14.37" shape="15946.38,19760.15 15960.75,19760.01"/>
    </edge>
    <edge id=":1159173347_3" function="internal">
        <lane id=":1159173347_3_0" index="0" disallow="tram rail_urban rail rail_electric rail_fast ship" speed="7.95" length="14.29" shape="15946.38,19760.15 15950.28,19760.68 15953.04,19762.34 15954.65,19765.11 15955.13,19769.02"/>
    </edge>
    <edge id=":1159173347_4" function="internal">
        <lane id=":1159173347_4_0" index="0" disallow="tram rail_urban rail rail_electric rail_fast ship" speed="6.45" length="9.03" shape="15951.93,19768.95 15951.63,19766.49 15950.61,19764.73 15948.87,19763.68 15946.40,19763.35"/>
    </edge>
    <edge id=":1159173347_5" function="internal">
        <lane id=":1159173347_5_0" index="0" disallow="tram rail_urban rail rail_electric rail_fast ship" speed="8.11" length="14.22" shape="15951.93,19768.95 15952.55,19765.08 15954.23,19762.30 15956.96,19760.61 15960.75,19760.01"/>
    </edge>
    <edge id=":1159173348_0" function="internal">
        <lane id=":1159173348_0_0" index="0" disallow="tram rail_urban rail rail_electric rail_fast ship" speed="27.78" length="14.14" shape="15955.62,19923.52 15941.53,19923.18"/>
        <lane id=":1159173348_0_1" index="1" disallow="tram rail_urban rail rail_electric rail_fast ship" speed="27.78" length="14.14" shape="15955.74,19920.32 15941.56,19919.98"/>
    </edge>
    <edge id=":1159173348_2" function="internal">
        <lane id=":1159173348_2_0" index="0" disallow="tram rail_urban rail rail_electric rail_fast ship" speed="8.66" length="3.53" shape="15955.74,19920.32 15952.31,19919.52"/>
    </edge>
    <edge id=":1159173348_8" function="internal">
        <lane id=":1159173348_8_0" index="0" disallow="tram rail_urban rail rail_electric rail_fast ship" speed="8.66" length="13.37" shape="15952.31,19919.52 15951.90,19919.42 15949.23,19917.06 15947.75,19913.24 15947.44,19907.96"/>
    </edge>
    <edge id=":1159173348_3" function="internal">
        <lane id=":1159173348_3_0" index="0" disallow="tram rail_urban rail rail_electric rail_fast ship" speed="6.49" length="9.03" shape="15950.63,19908.11 15950.87,19910.57 15951.84,19912.37 15953.54,19913.48 15955.98,19913.93"/>
    </edge>
    <edge id=":1159173348_4" function="internal">
        <lane id=":1159173348_4_0" index="0" disallow="tram rail_urban rail rail_electric rail_fast ship" speed="8.77" length="16.77" shape="15950.63,19908.11 15949.86,19913.33 15948.09,19917.05 15945.32,19919.27 15941.56,19919.98"/>
    </edge>
    <edge id=":1159173348_5" function="internal">
        <lane id=":1159173348_5_0" index="0" disallow="tram rail_urban rail rail_electric rail_fast ship" speed="6.63" length="9.14" shape="15941.63,19913.58 15944.07,19913.25 15945.85,19912.20 15946.97,19910.44 15947.44,19907.96"/>
    </edge>
    <edge id=":1159173348_6" function="internal">
        <lane id=":1159173348_6_0" index="0" disallow="tram rail_urban rail rail_electric rail_fast ship" speed="27.78" length="14.31" shape="15941.63,19913.58 15955.98,19913.93"/>
        <lane id=":1159173348_6_1" index="1" disallow="tram rail_urban rail rail_electric rail_fast ship" speed="27.78" length="14.31" shape="15941.59,19916.78 15955.86,19917.12"/>
    </edge>
    <edge id=":1159173779_0" function="internal">
        <lane id=":1159173779_0_0" index="0" disallow="tram rail_urban rail rail_electric rail_fast ship" speed="6.48" length="9.03" shape="15806.09,19921.72 15803.63,19922.04 15801.87,19923.08 15800.82,19924.82 15800.47,19927.27"/>
    </edge>
    <edge id=":1159173779_1" function="internal">
        <lane id=":1159173779_1_0" index="0" disallow="tram rail_urban rail rail_electric rail_fast ship" speed="27.78" length="14.38" shape="15806.09,19921.72 15791.70,19921.51"/>
        <lane id=":1159173779_1_1" index="1" disallow="tram rail_urban rail rail_electric rail_fast ship" speed="27.78" length="14.38" shape="15806.12,19918.52 15791.76,19918.31"/>
    </edge>
    <edge id=":1159173779_3" function="internal">
        <lane id=":1159173779_3_0" index="0" disallow="tram rail_urban rail rail_electric rail_fast ship" speed="27.78" length="14.33" shape="15791.88,19911.91 15806.19,19912.12"/>
        <lane id=":1159173779_3_1" index="1" disallow="tram rail_urban rail rail_electric rail_fast ship" speed="27.78" length="14.33" shape="15791.82,19915.11 15806.15,19915.32"/>
    </edge>
    <edge id=":1159173779_5" function="internal">
        <lane id=":1159173779_5_0" index="0" disallow="tram rail_urban rail rail_electric rail_fast ship" speed="8.72" length="3.63" shape="15791.82,19915.11 15795.37,19915.88"/>
    </edge>
    <edge id=":1159173779_8" function="internal">
        <lane id=":1159173779_8_0" index="0" disallow="tram rail_urban rail rail_electric rail_fast ship" speed="8.72" length="13.19" shape="15795.37,19915.88 15795.60,19915.93 15798.31,19918.23 15799.93,19922.01 15800.47,19927.27"/>
    </edge>
    <edge id=":1159173779_6" function="internal">
        <lane id=":1159173779_6_0" index="0" disallow="tram rail_urban rail rail_electric rail_fast ship" speed="6.57" length="9.10" shape="15797.27,19927.27 15796.92,19924.79 15795.88,19923.00 15794.14,19921.91 15791.70,19921.51"/>
    </edge>
    <edge id=":1159173779_7" function="internal">
        <lane id=":1159173779_7_0" index="0" disallow="tram rail_urban rail rail_electric rail_fast ship" speed="8.65" length="16.91" shape="15797.27,19927.27 15797.82,19922.01 15799.49,19918.26 15802.27,19916.03 15806.15,19915.32"/>
    </edge>
    <edge id=":1159174087_0" function="internal">
        <lane id=":1159174087_0_0" index="0" disallow="tram rail_urban rail rail_electric rail_fast ship" speed="22.22" length="14.10" shape="15398.97,20408.99 15384.87,20408.72"/>
    </edge>
    <edge id=":1159174087_1" function="internal">
        <lane id=":1159174087_1_0" index="0" disallow="tram rail_urban rail rail_electric rail_fast ship" speed="8.01" length="3.83" shape="15398.97,20408.99 15395.20,20408.31"/>
    </edge>
    <edge id=":1159174087_6" function="internal">
        <lane id=":1159174087_6_0" index="0" disallow="tram rail_urban rail rail_electric rail_fast ship" speed="8.01" length="10.19" shape="15395.20,20408.31 15392.53,20406.59 15390.96,20403.82 15390.49,20400.02"/>
    </edge>
    <edge id=":1159174087_2" function="internal">
        <lane id=":1159174087_2_0" index="0" disallow="tram rail_urban rail rail_electric rail_fast ship" speed="6.52" length="8.94" shape="15393.69,20400.07 15393.99,20402.50 15394.99,20404.26 15396.69,20405.36 15399.09,20405.79"/>
    </edge>
    <edge id=":1159174087_3" function="internal">
        <lane id=":1159174087_3_0" index="0" disallow="tram rail_urban rail rail_electric rail_fast ship" speed="8.00" length="14.03" shape="15393.69,20400.07 15393.08,20403.86 15391.41,20406.56 15388.67,20408.18 15384.87,20408.72"/>
    </edge>
    <edge id=":1159174087_4" function="internal">
        <lane id=":1159174087_4_0" index="0" disallow="tram rail_urban rail rail_electric rail_fast ship" speed="6.51" length="8.93" shape="15384.88,20405.52 15387.29,20405.18 15389.03,20404.15 15390.10,20402.43 15390.49,20400.02"/>
    </edge>
    <edge id=":1159174087_5" function="internal">
        <lane id=":1159174087_5_0" index="0" disallow="tram rail_urban rail rail_electric rail_fast ship" speed="22.22" length="14.21" shape="15384.88,20405.52 15399.09,20405.79"/>
    </edge>
    <edge id=":1159175201_0" function="internal">
        <lane id=":1159175201_0_0" index="0" disallow="tram rail_urban rail rail_electric rail_fast ship" speed="6.58" length="9.13" shape="15629.28,19765.32 15626.78,19765.68 15624.99,19766.73 15623.90,19768.47 15623.51,19770.91"/>
    </edge>
    <edge id=":1159175201_1" function="internal">
        <lane id=":1159175201_1_0" index="0" disallow="tram rail_urban rail rail_electric rail_fast ship" speed="7.97" length="14.26" shape="15629.28,19765.32 15625.40,19764.78 15622.64,19763.13 15621.01,19760.36 15620.51,19756.47"/>
    </edge>
    <edge id=":1159175201_2" function="internal">
        <lane id=":1159175201_2_0" index="0" disallow="tram rail_urban rail rail_electric rail_fast ship" speed="6.47" length="9.03" shape="15623.71,19756.51 15624.03,19758.97 15625.06,19760.73 15626.80,19761.78 15629.26,19762.12"/>
    </edge>
    <edge id=":1159175201_3" function="internal">
        <lane id=":1159175201_3_0" index="0" disallow="tram rail_urban rail rail_electric rail_fast ship" speed="22.22" length="14.40" shape="15623.71,19756.51 15623.51,19770.91"/>
    </edge>
    <edge id=":1159175201_4" function="internal">
        <lane id=":1159175201_4_0" index="0" disallow="tram rail_urban rail rail_electric rail_fast ship" speed="22.22" length="14.40" shape="15620.31,19770.87 15620.51,19756.47"/>
    </edge>
    <edge id=":1159175201_5" function="internal">
        <lane id=":1159175201_5_0" index="0" disallow="tram rail_urban rail rail_electric rail_fast ship" speed="8.06" length="4.03" shape="15620.31,19770.87 15620.92,19767.05 15621.01,19766.91"/>
    </edge>
    <edge id=":1159175201_6" function="internal">
        <lane id=":1159175201_6_0" index="0" disallow="tram rail_urban rail rail_electric rail_fast ship" speed="8.06" length="10.18" shape="15621.01,19766.91 15622.61,19764.32 15625.39,19762.68 15629.26,19762.12"/>
    </edge>
    <edge id=":1159175447_0" function="internal">
        <lane id=":1159175447_0_0" index="0" disallow="tram rail_urban rail rail_electric rail_fast ship" speed="7.07" length="9.75" shape="15851.33,19601.07 15848.93,19599.61 15846.67,19599.10 15844.54,19599.55 15842.54,19600.96"/>
    </edge>
    <edge id=":1159175447_1" function="internal">
        <lane id=":1159175447_1_0" index="0" disallow="tram rail_urban rail rail_electric rail_fast ship" speed="7.78" length="14.73" shape="15851.33,19601.07 15848.49,19598.09 15847.44,19595.01 15848.18,19591.85 15850.70,19588.60"/>
    </edge>
    <edge id=":1159175447_2" function="internal">
        <lane id=":1159175447_2_0" index="0" disallow="tram rail_urban rail rail_electric rail_fast ship" speed="6.23" length="9.05" shape="15852.93,19590.90 15851.38,19592.90 15850.92,19594.84 15851.57,19596.73 15853.31,19598.56"/>
    </edge>
    <edge id=":1159175447_3" function="internal">
        <lane id=":1159175447_3_0" index="0" disallow="tram rail_urban rail rail_electric rail_fast ship" speed="13.89" length="14.46" shape="15852.93,19590.90 15842.54,19600.96"/>
    </edge>
    <edge id=":1159175447_4" function="internal">
        <lane id=":1159175447_4_0" index="0" disallow="tram rail_urban rail rail_electric rail_fast ship" speed="13.89" length="14.47" shape="15840.31,19598.66 15850.70,19588.60"/>
    </edge>
    <edge id=":1159175447_5" function="internal">
        <lane id=":1159175447_5_0" index="0" disallow="tram rail_urban rail rail_electric rail_fast ship" speed="8.47" length="3.88" shape="15840.31,19598.66 15843.33,19596.51 15843.49,19596.47"/>
    </edge>
    <edge id=":1159175447_6" function="internal">
        <lane id=":1159175447_6_0" index="0" disallow="tram rail_urban rail rail_electric rail_fast ship" speed="8.47" length="10.55" shape="15843.49,19596.47 15846.50,19595.78 15849.83,19596.46 15853.31,19598.56"/>
    </edge>
    <edge id=":1159176227_0" function="internal">
        <lane id=":1159176227_0_0" index="0" disallow="tram rail_urban rail rail_electric rail_fast ship" speed="6.48" length="9.05" shape="14740.20,19648.27 14737.74,19648.56 14735.97,19649.58 14734.90,19651.32 14734.53,19653.77"/>
    </edge>
    <edge id=":1159176227_1" function="internal">
        <lane id=":1159176227_1_0" index="0" disallow="tram rail_urban rail rail_electric rail_fast ship" speed="22.22" length="14.45" shape="14740.20,19648.27 14725.75,19648.16"/>
    </edge>
    <edge id=":1159176227_2" function="internal">
        <lane id=":1159176227_2_0" index="0" disallow="tram rail_urban rail rail_electric rail_fast ship" speed="8.08" length="14.24" shape="14740.20,19648.27 14736.35,19647.63 14733.60,19645.93 14731.95,19643.16 14731.40,19639.33"/>
    </edge>
    <edge id=":1159176227_3" function="internal">
        <lane id=":1159176227_3_0" index="0" disallow="tram rail_urban rail rail_electric rail_fast ship" speed="6.60" length="9.16" shape="14734.60,19639.33 14734.96,19641.79 14736.02,19643.57 14737.79,19644.66 14740.28,19645.07"/>
    </edge>
    <edge id=":1159176227_4" function="internal">
        <lane id=":1159176227_4_0" index="0" disallow="tram rail_urban rail rail_electric rail_fast ship" speed="22.22" length="14.45" shape="14734.60,19639.33 14734.53,19653.77"/>
    </edge>
    <edge id=":1159176227_5" function="internal">
        <lane id=":1159176227_5_0" index="0" disallow="tram rail_urban rail rail_electric rail_fast ship" speed="8.04" length="4.09" shape="14734.60,19639.33 14734.05,19643.16 14733.94,19643.34"/>
    </edge>
    <edge id=":1159176227_12" function="internal">
        <lane id=":1159176227_12_0" index="0" disallow="tram rail_urban rail rail_electric rail_fast ship" speed="8.04" length="10.14" shape="14733.94,19643.34 14732.39,19645.91 14729.62,19647.58 14725.75,19648.16"/>
    </edge>
    <edge id=":1159176227_6" function="internal">
        <lane id=":1159176227_6_0" index="0" disallow="tram rail_urban rail rail_electric rail_fast ship" speed="6.55" length="9.10" shape="14725.73,19644.96 14728.21,19644.59 14729.98,19643.53 14731.05,19641.77 14731.40,19639.33"/>
    </edge>
    <edge id=":1159176227_7" function="internal">
        <lane id=":1159176227_7_0" index="0" disallow="tram rail_urban rail rail_electric rail_fast ship" speed="22.22" length="14.55" shape="14725.73,19644.96 14740.28,19645.07"/>
    </edge>
    <edge id=":1159176227_8" function="internal">
        <lane id=":1159176227_8_0" index="0" disallow="tram rail_urban rail rail_electric rail_fast ship" speed="7.97" length="14.26" shape="14725.73,19644.96 14729.61,19645.48 14732.37,19647.13 14734.01,19649.89 14734.53,19653.77"/>
    </edge>
    <edge id=":1159176227_9" function="internal">
        <lane id=":1159176227_9_0" index="0" disallow="tram rail_urban rail rail_electric rail_fast ship" speed="6.47" length="9.03" shape="14731.33,19653.74 14731.00,19651.28 14729.96,19649.53 14728.21,19648.49 14725.75,19648.16"/>
    </edge>
    <edge id=":1159176227_10" function="internal">
        <lane id=":1159176227_10_0" index="0" disallow="tram rail_urban rail rail_electric rail_fast ship" speed="22.22" length="14.42" shape="14731.33,19653.74 14731.40,19639.33"/>
    </edge>
    <edge id=":1159176227_11" function="internal">
        <lane id=":1159176227_11_0" index="0" disallow="tram rail_urban rail rail_electric rail_fast ship" speed="7.98" length="4.05" shape="14731.33,19653.74 14731.92,19649.87 14731.99,19649.76"/>
    </edge>
    <edge id=":1159176227_13" function="internal">
        <lane id=":1159176227_13_0" index="0" disallow="tram rail_urban rail rail_electric rail_fast ship" speed="7.98" length="10.21" shape="14731.99,19649.76 14733.61,19647.13 14736.40,19645.53 14740.28,19645.07"/>
    </edge>
    <edge id=":1159176366_0" function="internal">
        <lane id=":1159176366_0_0" index="0" disallow="tram rail_urban rail rail_electric rail_fast ship" speed="22.22" length="12.88" shape="14520.06,19703.18 14519.07,19706.46 14518.46,19709.41 14518.13,19712.42 14518.01,19715.84"/>
    </edge>
    <edge id=":1159176366_1" function="internal">
        <lane id=":1159176366_1_0" index="0" disallow="tram rail_urban rail rail_electric rail_fast ship" speed="8.96" length="3.47" shape="14520.06,19703.18 14518.48,19706.28"/>
    </edge>
    <edge id=":1159176366_6" function="internal">
        <lane id=":1159176366_6_0" index="0" disallow="tram rail_urban rail rail_electric rail_fast ship" speed="8.96" length="10.31" shape="14518.48,19706.28 14516.17,19708.46 14513.11,19709.74 14509.32,19710.11"/>
    </edge>
    <edge id=":1159176366_2" function="internal">
        <lane id=":1159176366_2_0" index="0" disallow="tram rail_urban rail rail_electric rail_fast ship" speed="7.60" length="9.71" shape="14509.38,19706.91 14512.10,19706.66 14514.29,19705.78 14515.93,19704.28 14517.03,19702.15"/>
    </edge>
    <edge id=":1159176366_3" function="internal">
        <lane id=":1159176366_3_0" index="0" disallow="tram rail_urban rail rail_electric rail_fast ship" speed="8.00" length="14.14" shape="14509.38,19706.91 14513.20,19707.53 14515.91,19709.23 14517.52,19712.00 14518.01,19715.84"/>
    </edge>
    <edge id=":1159176366_4" function="internal">
        <lane id=":1159176366_4_0" index="0" disallow="tram rail_urban rail rail_electric rail_fast ship" speed="6.51" length="9.00" shape="14514.81,19715.79 14514.49,19713.35 14513.47,19711.59 14511.75,19710.51 14509.32,19710.11"/>
    </edge>
    <edge id=":1159176366_5" function="internal">
        <lane id=":1159176366_5_0" index="0" disallow="tram rail_urban rail rail_electric rail_fast ship" speed="22.22" length="13.88" shape="14514.81,19715.79 14514.96,19712.22 14515.34,19708.87 14516.01,19705.58 14517.03,19702.15"/>
    </edge>
    <edge id=":1159176368_0" function="internal">
        <lane id=":1159176368_0_0" index="0" disallow="tram rail_urban rail rail_electric rail_fast ship" speed="6.28" length="9.04" shape="14297.37,19706.21 14294.87,19706.52 14293.16,19707.57 14292.24,19709.35 14292.11,19711.86"/>
    </edge>
    <edge id=":1159176368_1" function="internal">
        <lane id=":1159176368_1_0" index="0" disallow="tram rail_urban rail rail_electric rail_fast ship" speed="7.01" length="9.64" shape="14290.71,19697.51 14291.34,19699.87 14292.67,19701.58 14294.70,19702.62 14297.43,19703.01"/>
    </edge>
    <edge id=":1159176368_2" function="internal">
        <lane id=":1159176368_2_0" index="0" disallow="tram rail_urban rail rail_electric rail_fast ship" speed="27.78" length="14.38" shape="14290.71,19697.51 14292.11,19711.86"/>
        <lane id=":1159176368_2_1" index="1" disallow="tram rail_urban rail rail_electric rail_fast ship" speed="27.78" length="14.38" shape="14287.53,19697.84 14288.93,19712.16"/>
        <lane id=":1159176368_2_2" index="2" disallow="tram rail_urban rail rail_electric rail_fast ship" speed="27.78" length="14.38" shape="14284.35,19698.17 14285.74,19712.45"/>
    </edge>
    <edge id=":1159176576_0" function="internal">
        <lane id=":1159176576_0_0" index="0" disallow="tram rail_urban rail rail_electric rail_fast ship" speed="7.33" length="11.73" shape="14582.97,19895.91 14580.52,19896.42 14578.74,19898.05 14577.65,19900.78 14577.24,19904.63"/>
    </edge>
    <edge id=":1159176576_1" function="internal">
        <lane id=":1159176576_1_0" index="0" disallow="tram rail_urban rail rail_electric rail_fast ship" speed="27.78" length="14.40" shape="14582.97,19895.91 14568.57,19895.69"/>
    </edge>
    <edge id=":1159176576_2" function="internal">
        <lane id=":1159176576_2_0" index="0" disallow="tram rail_urban rail rail_electric rail_fast ship" speed="27.78" length="14.41" shape="14568.67,19889.29 14583.07,19889.51"/>
        <lane id=":1159176576_2_1" index="1" disallow="tram rail_urban rail rail_electric rail_fast ship" speed="27.78" length="14.41" shape="14568.62,19892.49 14583.02,19892.71"/>
    </edge>
    <edge id=":1159176576_4" function="internal">
        <lane id=":1159176576_4_0" index="0" disallow="tram rail_urban rail rail_electric rail_fast ship" speed="8.67" length="3.72" shape="14568.62,19892.49 14572.25,19893.26"/>
    </edge>
    <edge id=":1159176576_7" function="internal">
        <lane id=":1159176576_7_0" index="0" disallow="tram rail_urban rail rail_electric rail_fast ship" speed="8.67" length="13.14" shape="14572.25,19893.26 14572.46,19893.30 14575.18,19895.59 14576.77,19899.37 14577.24,19904.63"/>
    </edge>
    <edge id=":1159176576_5" function="internal">
        <lane id=":1159176576_5_0" index="0" disallow="tram rail_urban rail rail_electric rail_fast ship" speed="6.51" length="9.03" shape="14574.04,19904.58 14573.73,19902.12 14572.70,19900.36 14570.97,19899.28 14568.52,19898.89"/>
    </edge>
    <edge id=":1159176576_6" function="internal">
        <lane id=":1159176576_6_0" index="0" disallow="tram rail_urban rail rail_electric rail_fast ship" speed="8.67" length="16.85" shape="14574.04,19904.58 14574.67,19899.33 14576.38,19895.61 14579.16,19893.40 14583.02,19892.71"/>
    </edge>
    <edge id=":1159176619_0" function="internal">
        <lane id=":1159176619_0_0" index="0" disallow="tram rail_urban rail rail_electric rail_fast ship" speed="6.64" length="9.17" shape="14580.10,20084.24 14577.58,20084.59 14575.76,20085.63 14574.62,20087.36 14574.18,20089.78"/>
    </edge>
    <edge id=":1159176619_1" function="internal">
        <lane id=":1159176619_1_0" index="0" disallow="tram rail_urban rail rail_electric rail_fast ship" speed="7.97" length="14.26" shape="14580.10,20084.24 14576.22,20083.69 14573.47,20082.03 14571.85,20079.26 14571.35,20075.37"/>
    </edge>
    <edge id=":1159176619_2" function="internal">
        <lane id=":1159176619_2_0" index="0" disallow="tram rail_urban rail rail_electric rail_fast ship" speed="6.47" length="9.03" shape="14574.55,20075.42 14574.87,20077.88 14575.89,20079.64 14577.64,20080.69 14580.09,20081.04"/>
    </edge>
    <edge id=":1159176619_3" function="internal">
        <lane id=":1159176619_3_0" index="0" disallow="tram rail_urban rail rail_electric rail_fast ship" speed="22.22" length="14.37" shape="14574.55,20075.42 14574.18,20089.78"/>
    </edge>
    <edge id=":1159176619_4" function="internal">
        <lane id=":1159176619_4_0" index="0" disallow="tram rail_urban rail rail_electric rail_fast ship" speed="22.22" length="14.30" shape="14570.98,20089.66 14571.35,20075.37"/>
    </edge>
    <edge id=":1159176619_5" function="internal">
        <lane id=":1159176619_5_0" index="0" disallow="tram rail_urban rail rail_electric rail_fast ship" speed="8.11" length="3.93" shape="14570.98,20089.66 14571.67,20085.90 14571.72,20085.81"/>
    </edge>
    <edge id=":1159176619_6" function="internal">
        <lane id=":1159176619_6_0" index="0" disallow="tram rail_urban rail rail_electric rail_fast ship" speed="8.11" length="10.26" shape="14571.72,20085.81 14573.42,20083.20 14576.23,20081.58 14580.09,20081.04"/>
    </edge>
    <edge id=":1159176621_0" function="internal">
        <lane id=":1159176621_0_0" index="0" disallow="tram rail_urban rail rail_electric rail_fast ship" speed="22.22" length="14.46" shape="14726.74,20075.33 14726.39,20089.78"/>
    </edge>
    <edge id=":1159176621_1" function="internal">
        <lane id=":1159176621_1_0" index="0" disallow="tram rail_urban rail rail_electric rail_fast ship" speed="8.07" length="4.07" shape="14726.74,20075.33 14726.12,20079.14 14726.00,20079.32"/>
    </edge>
    <edge id=":1159176621_6" function="internal">
        <lane id=":1159176621_6_0" index="0" disallow="tram rail_urban rail rail_electric rail_fast ship" speed="8.07" length="10.18" shape="14726.00,20079.32 14724.40,20081.86 14721.60,20083.50 14717.71,20084.05"/>
    </edge>